OPT_V9/Results/My_campus_w_initial_sub_3_active_27_03_13_25/network_debug.txt
Pandapower Network Debug Info
==================================================

BUS:
          name  vn_kv type  zone  in_service   geo
0        Bus 8    0.4    b  None        True  None
1        Bus 9    0.4    b  None        True  None
2       Bus 10    0.4    b  None        True  None
3       Bus 11    0.4    b  None        True  None
4       Bus 16    0.4    b  None        True  None
5       Bus 17    0.4    b  None        True  None
6       Bus 18    0.4    b  None        True  None
7       Bus 19    0.4    b  None        True  None
8       Bus 20    0.4    b  None        True  None
9       Bus 21   15.0    b  None        True  None
10      Bus 22   15.0    b  None        True  None
11      Bus 23   15.0    b  None        True  None
12      Bus 24   15.0    b  None        True  None
13      Bus 25   15.0    b  None        True  None
14      Bus 26   15.0    b  None        True  None
15    Sub MV 2   15.0    b  None        True  None
16    Sub LV 2    0.4    b  None        True  None
17    Sub MV 5   15.0    b  None        True  None
18    Sub LV 5    0.4    b  None        True  None
19  Slack HV 0   70.0    b  None        True  None
20  Slack MV 0   15.0    b  None        True  None
21  Slack HV 1   70.0    b  None        True  None
22  Slack MV 1   15.0    b  None        True  None
--------------------------------------------------

LOAD:
          name  bus      p_mw        q_mvar  const_z_percent  const_i_percent  sn_mva  scaling  in_service type
0    Load 8 T1    0 -0.004256 -1.065923e-04              0.0              0.0     NaN      1.0        True  wye
1    Load 8 T2    0 -0.005497 -5.325535e-03              0.0              0.0     NaN      1.0        True  wye
2    Load 9 T1    1 -0.004483 -7.366837e-06              0.0              0.0     NaN      1.0        True  wye
3    Load 9 T2    1 -0.001973 -1.328940e-03              0.0              0.0     NaN      1.0        True  wye
4   Load 10 T1    2 -0.003232  0.000000e+00              0.0              0.0     NaN      1.0        True  wye
5   Load 10 T2    2 -0.002694  0.000000e+00              0.0              0.0     NaN      1.0        True  wye
6   Load 11 T1    3 -0.002460  0.000000e+00              0.0              0.0     NaN      1.0        True  wye
7   Load 11 T2    3 -0.002557 -1.057136e-03              0.0              0.0     NaN      1.0        True  wye
8   Load 16 T1    4 -0.003245 -9.909009e-06              0.0              0.0     NaN      1.0        True  wye
9   Load 16 T2    4 -0.002103  7.944436e-04              0.0              0.0     NaN      1.0        True  wye
10  Load 17 T1    5 -0.000042  4.050667e-04              0.0              0.0     NaN      1.0        True  wye
11  Load 17 T2    5 -0.002400  9.098540e-04              0.0              0.0     NaN      1.0        True  wye
12  Load 18 T1    6 -0.005070 -4.380598e-04              0.0              0.0     NaN      1.0        True  wye
13  Load 18 T2    6 -0.001063 -1.401127e-03              0.0              0.0     NaN      1.0        True  wye
14  Load 19 T1    7 -0.003239 -5.502014e-06              0.0              0.0     NaN      1.0        True  wye
15  Load 19 T2    7 -0.002953 -2.769682e-03              0.0              0.0     NaN      1.0        True  wye
16  Load 20 T1    8 -0.002151 -3.973552e-06              0.0              0.0     NaN      1.0        True  wye
17  Load 20 T2    8 -0.004127 -2.854963e-03              0.0              0.0     NaN      1.0        True  wye
18  Load 21 T1    9 -0.001711 -1.006482e-07              0.0              0.0     NaN      1.0        True  wye
19  Load 21 T2    9  0.008493  8.514189e-03              0.0              0.0     NaN      1.0        True  wye
20  Load 22 T1   10 -0.000826 -3.726615e-08              0.0              0.0     NaN      1.0        True  wye
21  Load 22 T2   10  0.011241  9.172389e-03              0.0              0.0     NaN      1.0        True  wye
22  Load 23 T1   11  0.009814  0.000000e+00              0.0              0.0     NaN      1.0        True  wye
23  Load 23 T2   11  0.002571  4.805868e-03              0.0              0.0     NaN      1.0        True  wye
24  Load 24 T1   12  0.001615 -1.223429e-07              0.0              0.0     NaN      1.0        True  wye
25  Load 24 T2   12  0.009257  2.822996e-03              0.0              0.0     NaN      1.0        True  wye
26  Load 25 T1   13  0.010111 -3.898639e-08              0.0              0.0     NaN      1.0        True  wye
27  Load 25 T2   13  0.006094  2.996352e-03              0.0              0.0     NaN      1.0        True  wye
28  Load 26 T1   14  0.009175 -1.585833e-07              0.0              0.0     NaN      1.0        True  wye
29  Load 26 T2   14  0.003864  3.087145e-03              0.0              0.0     NaN      1.0        True  wye
--------------------------------------------------

EXT_GRID:
        name  bus  vm_pu  va_degree  slack_weight  in_service
0  ExtGrid 0   19    1.0        0.0           1.0        True
1  ExtGrid 1   21    1.0        0.0           1.0        True
--------------------------------------------------

LINE:
       name std_type  from_bus  to_bus  length_km  r_ohm_per_km  x_ohm_per_km  c_nf_per_km  g_us_per_km  max_i_ka   df  parallel  type  in_service   geo
0    Line 0     None        20      15   0.400000        0.5502         0.429          0.0          0.0      0.23  1.0         1  None        True  None
1    Line 7     None        22      17   1.100000        0.5502         0.429          0.0          0.0      0.23  1.0         1  None        True  None
2    Line 8     None        15       9   0.316228        0.5502         0.429          0.0          0.0      0.23  1.0         1  None        True  None
3   Line 17     None        17      12   0.141421        0.5502         0.429          0.0          0.0      0.23  1.0         1  None        True  None
4   Line 19     None        17      14   0.223607        0.5502         0.429          0.0          0.0      0.23  1.0         1  None        True  None
5   Line 20     None        16       0   0.136015        0.5502         0.429          0.0          0.0      0.23  1.0         1  None        True  None
6   Line 34     None        18       5   0.225610        0.5502         0.429          0.0          0.0      0.23  1.0         1  None        True  None
7   Line 36     None        18       7   0.196469        0.5502         0.429          0.0          0.0      0.23  1.0         1  None        True  None
8   Line 37     None        18       8   0.050000        0.5502         0.429          0.0          0.0      0.23  1.0         1  None        True  None
9   Line 38     None        10       9   0.141421        0.5502         0.429          0.0          0.0      0.23  1.0         1  None        True  None
10  Line 40     None        11      10   0.200000        0.5502         0.429          0.0          0.0      0.23  1.0         1  None        True  None
11  Line 43     None        14      13   0.200000        0.5502         0.429          0.0          0.0      0.23  1.0         1  None        True  None
12  Line 44     None         1       0   0.172047        0.5502         0.429          0.0          0.0      0.23  1.0         1  None        True  None
13  Line 46     None         3       0   0.194165        0.5502         0.429          0.0          0.0      0.23  1.0         1  None        True  None
14  Line 47     None         2       1   0.263059        0.5502         0.429          0.0          0.0      0.23  1.0         1  None        True  None
15  Line 52     None         8       4   0.353836        0.5502         0.429          0.0          0.0      0.23  1.0         1  None        True  None
16  Line 53     None         6       5   0.253180        0.5502         0.429          0.0          0.0      0.23  1.0         1  None        True  None
--------------------------------------------------

TRAFO:
                  name std_type  hv_bus  lv_bus  sn_mva  vn_hv_kv  vn_lv_kv  vk_percent  vkr_percent  pfe_kw  i0_percent  shift_degree tap_side  tap_neutral  tap_min  tap_max  tap_step_percent  tap_step_degree  tap_pos tap_changer_type  id_characteristic_table  tap_dependency_table  parallel   df  in_service
0  MV/LV Transformer 2     None      15      16    10.0      15.0       0.4        0.01         0.01    0.01        0.01           0.0     None          NaN      NaN      NaN               NaN              NaN      NaN              NaN                     <NA>                 False         1  1.0        True
1  MV/LV Transformer 5     None      17      18    10.0      15.0       0.4        0.01         0.01    0.01        0.01           0.0     None          NaN      NaN      NaN               NaN              NaN      NaN              NaN                     <NA>                 False         1  1.0        True
2  Slack Transformer 0     None      19      20    40.0      70.0      15.0        0.01         0.01    0.01        0.01           0.0     None          NaN      NaN      NaN               NaN              NaN      NaN              NaN                     <NA>                 False         1  1.0        True
3  Slack Transformer 1     None      21      22    40.0      70.0      15.0        0.01         0.01    0.01        0.01           0.0     None          NaN      NaN      NaN               NaN              NaN      NaN              NaN                     <NA>                 False         1  1.0        True
--------------------------------------------------

RES_BUS:
       vm_pu     va_degree      p_mw    q_mvar
0   1.008646  5.910180e-02 -0.005497 -0.005326
1   1.011974  1.358087e-01 -0.001973 -0.001329
2   1.014374  2.418483e-01 -0.002694  0.000000
3   1.010879  9.423551e-02 -0.002557 -0.001057
4   1.003112  1.964039e-01 -0.002103  0.000794
5   1.002943  9.780639e-02 -0.002400  0.000910
6   1.004810  6.948575e-02 -0.001063 -0.001401
7   1.003415 -1.811494e-02 -0.002953 -0.002770
8   1.001316  2.743453e-02 -0.004127 -0.002855
9   0.999948  6.937037e-04  0.008493  0.008514
10  0.999939  7.572867e-04  0.011241  0.009172
11  0.999936  8.357922e-04  0.002571  0.004806
12  0.999969 -1.701951e-04  0.009257  0.002823
13  0.999960 -1.849627e-04  0.006094  0.002996
14  0.999964 -1.357751e-04  0.003864  0.003087
15  0.999978  4.677052e-04  0.000000  0.000000
16  0.999978  4.636295e-04  0.000000  0.000000
17  0.999973 -8.310728e-05  0.000000  0.000000
18  0.999973 -8.585362e-05  0.000000  0.000000
19  1.000000  0.000000e+00 -0.009732 -0.019880
20  1.000000  2.561142e-06  0.000000  0.000000
21  1.000000  0.000000e+00 -0.006627 -0.008614
22  1.000000  9.473362e-07  0.000000  0.000000
--------------------------------------------------

RES_LINE:
    p_from_mw   q_from_mvar   p_to_mw  q_to_mvar         pl_mw       ql_mvar  i_from_ka   i_to_ka      i_ka  vm_from_pu  va_from_degree  vm_to_pu  va_to_degree  loading_percent
0    0.009722  1.588015e-02 -0.009722  -0.015880  3.391187e-07  2.644164e-07   0.000717  0.000717  0.000717    1.000000    2.561142e-06  0.999978      0.000468         0.311600
1    0.006617  4.613661e-03 -0.006616  -0.004614  1.750153e-07  1.364623e-07   0.000310  0.000310  0.000310    1.000000    9.473362e-07  0.999973     -0.000083         0.134987
2    0.022306  2.249317e-02 -0.022306  -0.022493  7.760363e-07  6.050883e-07   0.001219  0.001219  0.001219    0.999978    4.677052e-04  0.999948      0.000694         0.530142
3    0.009257  2.823021e-03 -0.009257  -0.002823  3.239333e-08  2.525761e-08   0.000373  0.000373  0.000373    0.999973   -8.310728e-05  0.999969     -0.000170         0.161965
4    0.009958  6.083572e-03 -0.009958  -0.006084  7.446421e-08  5.806097e-08   0.000449  0.000449  0.000449    0.999973   -8.310728e-05  0.999964     -0.000136         0.195291
5   -0.012595 -7.613193e-03  0.012696   0.007692  1.013050e-04  7.898916e-05   0.021242  0.021242  0.021242    0.999978    4.636295e-04  1.008646      0.059102         9.235783
6   -0.003451 -4.818500e-04  0.003460   0.000489  9.418209e-06  7.343532e-06   0.005029  0.005029  0.005029    0.999973   -8.585362e-05  1.002943      0.097806         2.186533
7   -0.002942 -2.761106e-03  0.002953   0.002770  1.099809e-05  8.575391e-06   0.005824  0.005824  0.005824    0.999973   -8.585362e-05  1.003415     -0.018115         2.531996
8   -0.006217 -2.050008e-03  0.006224   0.002056  7.367705e-06  5.744721e-06   0.009448  0.009448  0.009448    0.999973   -8.585362e-05  1.001316      0.027435         4.108018
9   -0.013812 -1.397827e-02  0.013812   0.013978  1.335629e-07  1.041412e-07   0.000756  0.000756  0.000756    0.999939    7.572867e-04  0.999948      0.000694         0.328879
10  -0.002571 -4.805868e-03  0.002571   0.004806  1.453009e-08  1.132935e-08   0.000210  0.000210  0.000210    0.999936    8.357922e-04  0.999939      0.000757         0.091216
11   0.006094  2.996369e-03 -0.006094  -0.002996  2.255495e-08  1.758647e-08   0.000261  0.000261  0.000261    0.999964   -1.357751e-04  0.999960     -0.000185         0.113647
12   0.004660  1.323977e-03 -0.004647  -0.001313  1.355996e-05  1.057293e-05   0.006910  0.006910  0.006910    1.011974    1.358087e-01  1.008646      0.059102         3.004399
13   0.002557  1.057141e-03 -0.002552  -0.001053  5.001454e-06  3.899716e-06   0.003950  0.003950  0.003950    1.010879    9.423551e-02  1.008646      0.059102         1.717568
14   0.002694  3.578662e-09 -0.002687   0.000005  6.378270e-06  4.973242e-06   0.003833  0.003833  0.003833    1.014374    2.418483e-01  1.011974      0.135809         1.666388
15  -0.002097  7.992099e-04  0.002103  -0.000794  6.112861e-06  4.766299e-06   0.003235  0.003235  0.003235    1.001316    2.743453e-02  1.003112      0.196404         1.406606
16   0.001063  1.401128e-03 -0.001061  -0.001399  2.667545e-06  2.079929e-06   0.002527  0.002527  0.002527    1.004810    6.948575e-02  1.002943      0.097806         1.098481
--------------------------------------------------

RES_TRAFO:
    p_hv_mw  q_hv_mvar   p_lv_mw  q_lv_mvar    pl_mw  ql_mvar   i_hv_ka   i_lv_ka  vm_hv_pu  va_hv_degree  vm_lv_pu  va_lv_degree  loading_percent
0 -0.012585  -0.006613  0.012595   0.007613  0.00001    0.001  0.000547  0.021242  0.999978      0.000468  0.999978  4.636295e-04         0.147171
1 -0.012599  -0.004293  0.012609   0.005293  0.00001    0.001  0.000512  0.019739  0.999973     -0.000083  0.999973 -8.585362e-05         0.136753
2  0.009732   0.019880 -0.009722  -0.015880  0.00001    0.004  0.000183  0.000717  1.000000      0.000000  1.000000  2.561142e-06         0.055336
3  0.006627   0.008614 -0.006617  -0.004614  0.00001    0.004  0.000090  0.000310  1.000000      0.000000  1.000000  9.473362e-07         0.027169
--------------------------------------------------

RES_EXT_GRID:
       p_mw    q_mvar
0  0.009732  0.019880
1  0.006627  0.008614
--------------------------------------------------

RES_LOAD:
        p_mw    q_mvar
0  -0.000000 -0.000000
1  -0.005497 -0.005326
2  -0.000000 -0.000000
3  -0.001973 -0.001329
4  -0.000000  0.000000
5  -0.002694  0.000000
6  -0.000000  0.000000
7  -0.002557 -0.001057
8  -0.000000 -0.000000
9  -0.002103  0.000794
10 -0.000000  0.000000
11 -0.002400  0.000910
12 -0.000000 -0.000000
13 -0.001063 -0.001401
14 -0.000000 -0.000000
15 -0.002953 -0.002770
16 -0.000000 -0.000000
17 -0.004127 -0.002855
18 -0.000000 -0.000000
19  0.008493  0.008514
20 -0.000000 -0.000000
21  0.011241  0.009172
22  0.000000  0.000000
23  0.002571  0.004806
24  0.000000 -0.000000
25  0.009257  0.002823
26  0.000000 -0.000000
27  0.006094  0.002996
28  0.000000 -0.000000
29  0.003864  0.003087
--------------------------------------------------

BUS_GEODATA:
        x      y
0    11.0   48.0
1    25.0   38.0
2    51.0   42.0
3     0.0   64.0
4   129.0  138.0
5   105.0   88.0
6   130.0   92.0
7    81.0  115.0
8   103.0  114.0
9    10.0   70.0
10   20.0   80.0
11   40.0   80.0
12   90.0  120.0
13  120.0  120.0
14  120.0  100.0
15    0.0   40.0
16    0.5   39.5
17  100.0  110.0
18  100.5  109.5
19    0.0    0.0
20    0.5   -0.5
21  100.0    0.0
22  100.5   -0.5
--------------------------------------------------
